262	        	        	        
  	        	        	        
Zn	 -3.2495	 -3.7519	  0.0000
Zn	  3.2495	 -3.7519	  0.0000
Zn	 -6.4990	  1.8764	  0.0000
Zn	 -0.0000	  1.8764	  0.0000
Zn	  6.4990	  1.8764	  0.0000
Zn	 -3.2495	  7.5047	  0.0000
Zn	  3.2495	  7.5047	  0.0000
Zn	 -4.8745	 -6.5665	  0.0000
Zn	  1.6245	 -6.5665	  0.0000
Zn	 -8.1240	 -0.9382	  0.0000
Zn	 -1.6250	 -0.9382	  0.0000
Zn	  4.8740	 -0.9382	  0.0000
Zn	 -4.8745	  4.6901	  0.0000
Zn	  1.6245	  4.6901	  0.0000
Zn	 -1.6245	 -6.5665	  0.0000
Zn	  4.8745	 -6.5665	  0.0000
Zn	 -4.8740	 -0.9382	  0.0000
Zn	  1.6250	 -0.9382	  0.0000
Zn	  8.1240	 -0.9382	  0.0000
Zn	 -1.6245	  4.6901	  0.0000
Zn	  4.8745	  4.6901	  0.0000
 O	 -1.6247	 -8.4424	 -0.9360
 O	  1.6248	 -8.4424	 -0.9360
 O	 -6.4990	 -5.6283	 -0.9360
 O	 -3.2495	 -5.6283	 -0.9360
 O	  0.0000	 -5.6283	 -0.9360
 O	  3.2495	 -5.6283	 -0.9360
 O	  6.4990	 -5.6283	 -0.9360
 O	 -8.1237	 -2.8141	 -0.9360
 O	 -4.8742	 -2.8141	 -0.9360
 O	 -1.6247	 -2.8141	 -0.9360
 O	  1.6248	 -2.8141	 -0.9360
 O	  4.8743	 -2.8141	 -0.9360
 O	  8.1237	 -2.8141	 -0.9360
 O	 -6.4990	  0.0000	 -0.9360
 O	 -3.2495	  0.0000	 -0.9360
 O	  0.0000	  0.0000	 -0.9360
 O	  3.2495	  0.0000	 -0.9360
 O	  6.4990	  0.0000	 -0.9360
 O	 -8.1237	  2.8141	 -0.9360
 O	 -4.8743	  2.8141	 -0.9360
 O	 -1.6248	  2.8141	 -0.9360
 O	  1.6247	  2.8141	 -0.9360
 O	  4.8742	  2.8141	 -0.9360
 O	  8.1237	  2.8141	 -0.9360
 O	 -6.4990	  5.6283	 -0.9360
 O	 -3.2495	  5.6283	 -0.9360
 O	 -0.0000	  5.6283	 -0.9360
 O	  3.2495	  5.6283	 -0.9360
 O	  6.4990	  5.6283	 -0.9360
 O	 -1.6248	  8.4424	 -0.9360
 O	  1.6247	  8.4424	 -0.9360
Zn	 -1.6247	 -8.4424	 -2.7737
Zn	  1.6248	 -8.4424	 -2.7737
Zn	 -6.4990	 -5.6283	 -2.7737
Zn	 -3.2495	 -5.6283	 -2.7737
Zn	  0.0000	 -5.6283	 -2.7737
Zn	  3.2495	 -5.6283	 -2.7737
Zn	  6.4990	 -5.6283	 -2.7737
Zn	 -8.1237	 -2.8141	 -2.7737
Zn	 -4.8742	 -2.8141	 -2.7737
Zn	 -1.6247	 -2.8141	 -2.7737
Zn	  1.6248	 -2.8141	 -2.7737
Zn	  4.8743	 -2.8141	 -2.7737
Zn	  8.1237	 -2.8141	 -2.7737
Zn	 -6.4990	  0.0000	 -2.7737
Zn	 -3.2495	  0.0000	 -2.7737
Zn	  0.0000	  0.0000	 -2.7737
Zn	  3.2495	  0.0000	 -2.7737
Zn	  6.4990	  0.0000	 -2.7737
Zn	 -8.1237	  2.8141	 -2.7737
Zn	 -4.8743	  2.8141	 -2.7737
Zn	 -1.6248	  2.8141	 -2.7737
Zn	  1.6247	  2.8141	 -2.7737
Zn	  4.8742	  2.8141	 -2.7737
Zn	  8.1237	  2.8141	 -2.7737
Zn	 -6.4990	  5.6283	 -2.7737
Zn	 -3.2495	  5.6283	 -2.7737
Zn	 -0.0000	  5.6283	 -2.7737
Zn	  3.2495	  5.6283	 -2.7737
Zn	  6.4990	  5.6283	 -2.7737
Zn	 -1.6248	  8.4424	 -2.7737
Zn	  1.6247	  8.4424	 -2.7737
 O	 -4.8742	 -6.5661	 -3.3977
 O	 -1.6247	 -6.5661	 -3.3977
 O	  1.6248	 -6.5661	 -3.3977
 O	  4.8743	 -6.5661	 -3.3977
 O	 -6.4990	 -3.7519	 -3.3977
 O	 -3.2495	 -3.7519	 -3.3977
 O	  0.0000	 -3.7519	 -3.3977
 O	  3.2495	 -3.7519	 -3.3977
 O	  6.4990	 -3.7519	 -3.3977
 O	 -8.1237	 -0.9378	 -3.3977
 O	 -4.8742	 -0.9378	 -3.3977
 O	 -1.6248	 -0.9378	 -3.3977
 O	  1.6248	 -0.9378	 -3.3977
 O	  4.8743	 -0.9378	 -3.3977
 O	  8.1237	 -0.9378	 -3.3977
 O	 -6.4990	  1.8764	 -3.3977
 O	 -3.2495	  1.8764	 -3.3977
 O	 -0.0000	  1.8764	 -3.3977
 O	  3.2495	  1.8764	 -3.3977
 O	  6.4990	  1.8764	 -3.3977
 O	 -4.8743	  4.6905	 -3.3977
 O	 -1.6248	  4.6905	 -3.3977
 O	  1.6247	  4.6905	 -3.3977
 O	  4.8742	  4.6905	 -3.3977
 O	 -3.2495	  7.5047	 -3.3977
 O	 -0.0000	  7.5047	 -3.3977
 O	  3.2495	  7.5047	 -3.3977
Zn	 -4.8742	 -6.5661	 -5.3737
Zn	 -1.6247	 -6.5661	 -5.3737
Zn	  1.6248	 -6.5661	 -5.3737
Zn	  4.8743	 -6.5661	 -5.3737
Zn	 -6.4990	 -3.7519	 -5.3737
Zn	 -3.2495	 -3.7519	 -5.3737
Zn	  0.0000	 -3.7519	 -5.3737
Zn	  3.2495	 -3.7519	 -5.3737
Zn	  6.4990	 -3.7519	 -5.3737
Zn	 -8.1237	 -0.9378	 -5.3737
Zn	 -4.8742	 -0.9378	 -5.3737
Zn	 -1.6248	 -0.9378	 -5.3737
Zn	  1.6248	 -0.9378	 -5.3737
Zn	  4.8743	 -0.9378	 -5.3737
Zn	  8.1237	 -0.9378	 -5.3737
Zn	 -6.4990	  1.8764	 -5.3737
Zn	 -3.2495	  1.8764	 -5.3737
Zn	 -0.0000	  1.8764	 -5.3737
Zn	  3.2495	  1.8764	 -5.3737
Zn	  6.4990	  1.8764	 -5.3737
Zn	 -4.8743	  4.6905	 -5.3737
Zn	 -1.6248	  4.6905	 -5.3737
Zn	  1.6247	  4.6905	 -5.3737
Zn	  4.8742	  4.6905	 -5.3737
Zn	 -3.2495	  7.5047	 -5.3737
Zn	 -0.0000	  7.5047	 -5.3737
Zn	  3.2495	  7.5047	 -5.3737
 O	 -3.2495	 -5.6283	 -5.9977
 O	  0.0000	 -5.6283	 -5.9977
 O	  3.2495	 -5.6283	 -5.9977
 O	 -4.8742	 -2.8141	 -5.9977
 O	 -1.6247	 -2.8141	 -5.9977
 O	  1.6248	 -2.8141	 -5.9977
 O	  4.8743	 -2.8141	 -5.9977
 O	 -6.4990	  0.0000	 -5.9977
 O	 -3.2495	  0.0000	 -5.9977
 O	  0.0000	  0.0000	 -5.9977
 O	  3.2495	  0.0000	 -5.9977
 O	  6.4990	  0.0000	 -5.9977
 O	 -4.8743	  2.8141	 -5.9977
 O	 -1.6248	  2.8141	 -5.9977
 O	  1.6247	  2.8141	 -5.9977
 O	  4.8742	  2.8141	 -5.9977
 O	 -3.2495	  5.6283	 -5.9977
 O	 -0.0000	  5.6283	 -5.9977
 O	  3.2495	  5.6283	 -5.9977
Zn	 -3.2495	 -5.6283	 -7.9737
Zn	  0.0000	 -5.6283	 -7.9737
Zn	  3.2495	 -5.6283	 -7.9737
Zn	 -4.8742	 -2.8141	 -7.9737
Zn	 -1.6247	 -2.8141	 -7.9737
Zn	  1.6248	 -2.8141	 -7.9737
Zn	  4.8743	 -2.8141	 -7.9737
Zn	 -6.4990	  0.0000	 -7.9737
Zn	 -3.2495	  0.0000	 -7.9737
Zn	  0.0000	  0.0000	 -7.9737
Zn	  3.2495	  0.0000	 -7.9737
Zn	  6.4990	  0.0000	 -7.9737
Zn	 -4.8743	  2.8141	 -7.9737
Zn	 -1.6248	  2.8141	 -7.9737
Zn	  1.6247	  2.8141	 -7.9737
Zn	  4.8742	  2.8141	 -7.9737
Zn	 -3.2495	  5.6283	 -7.9737
Zn	 -0.0000	  5.6283	 -7.9737
Zn	  3.2495	  5.6283	 -7.9737
 O	 -1.6247	 -6.5661	 -8.5977
 O	  1.6248	 -6.5661	 -8.5977
 O	 -6.4990	 -3.7519	 -8.5977
 O	 -3.2495	 -3.7519	 -8.5977
 O	  0.0000	 -3.7519	 -8.5977
 O	  3.2495	 -3.7519	 -8.5977
 O	  6.4990	 -3.7519	 -8.5977
 O	 -4.8742	 -0.9378	 -8.5977
 O	 -1.6248	 -0.9378	 -8.5977
 O	  1.6248	 -0.9378	 -8.5977
 O	  4.8743	 -0.9378	 -8.5977
 O	 -6.4990	  1.8764	 -8.5977
 O	 -3.2495	  1.8764	 -8.5977
 O	 -0.0000	  1.8764	 -8.5977
 O	  3.2495	  1.8764	 -8.5977
 O	  6.4990	  1.8764	 -8.5977
 O	 -4.8743	  4.6905	 -8.5977
 O	 -1.6248	  4.6905	 -8.5977
 O	  1.6247	  4.6905	 -8.5977
 O	  4.8742	  4.6905	 -8.5977
 O	 -0.0000	  7.5047	 -8.5977
Zn	 -1.6247	 -6.5661	-10.5737
Zn	  1.6248	 -6.5661	-10.5737
Zn	 -3.2495	 -3.7519	-10.5737
Zn	  0.0000	 -3.7519	-10.5737
Zn	  3.2495	 -3.7519	-10.5737
Zn	 -4.8742	 -0.9378	-10.5737
Zn	 -1.6248	 -0.9378	-10.5737
Zn	  1.6248	 -0.9378	-10.5737
Zn	  4.8743	 -0.9378	-10.5737
Zn	 -6.4990	  1.8764	-10.5737
Zn	 -3.2495	  1.8764	-10.5737
Zn	 -0.0000	  1.8764	-10.5737
Zn	  3.2495	  1.8764	-10.5737
Zn	  6.4990	  1.8764	-10.5737
Zn	 -4.8743	  4.6905	-10.5737
Zn	 -1.6248	  4.6905	-10.5737
Zn	  1.6247	  4.6905	-10.5737
Zn	  4.8742	  4.6905	-10.5737
 O	 -3.2495	 -5.6283	-11.1977
 O	  0.0000	 -5.6283	-11.1977
 O	  3.2495	 -5.6283	-11.1977
 O	 -4.8742	 -2.8141	-11.1977
 O	 -1.6247	 -2.8141	-11.1977
 O	  1.6248	 -2.8141	-11.1977
 O	  4.8743	 -2.8141	-11.1977
 O	 -6.4990	  0.0000	-11.1977
 O	 -3.2495	  0.0000	-11.1977
 O	  0.0000	  0.0000	-11.1977
 O	  3.2495	  0.0000	-11.1977
 O	  6.4990	  0.0000	-11.1977
 O	 -4.8743	  2.8141	-11.1977
 O	 -1.6248	  2.8141	-11.1977
 O	  1.6247	  2.8141	-11.1977
 O	  4.8742	  2.8141	-11.1977
 O	 -3.2495	  5.6283	-11.1977
 O	 -0.0000	  5.6283	-11.1977
 O	  3.2495	  5.6283	-11.1977
Zn	  0.0000	 -5.6283	-13.1737
Zn	 -4.8742	 -2.8141	-13.1737
Zn	 -1.6247	 -2.8141	-13.1737
Zn	  1.6248	 -2.8141	-13.1737
Zn	  4.8743	 -2.8141	-13.1737
Zn	 -3.2495	  0.0000	-13.1737
Zn	  0.0000	  0.0000	-13.1737
Zn	  3.2495	  0.0000	-13.1737
Zn	 -4.8743	  2.8141	-13.1737
Zn	 -1.6248	  2.8141	-13.1737
Zn	  1.6247	  2.8141	-13.1737
Zn	  4.8742	  2.8141	-13.1737
Zn	 -0.0000	  5.6283	-13.1737
 O	 -3.2495	 -3.7519	-13.7977
 O	  0.0000	 -3.7519	-13.7977
 O	  3.2495	 -3.7519	-13.7977
 O	 -4.8742	 -0.9378	-13.7977
 O	 -1.6248	 -0.9378	-13.7977
 O	  1.6248	 -0.9378	-13.7977
 O	  4.8743	 -0.9378	-13.7977
 O	 -3.2495	  1.8764	-13.7977
 O	 -0.0000	  1.8764	-13.7977
 O	  3.2495	  1.8764	-13.7977
 O	 -1.6248	  4.6905	-13.7977
 O	  1.6247	  4.6905	-13.7977
Zn	 -1.6248	 -0.9378	-15.7737
Zn	  1.6248	 -0.9378	-15.7737
Zn	 -0.0000	  1.8764	-15.7737
 O	  0.0000	  0.0000	-16.3977
