262	        	        	        
  	        	        	        
Zn	 -1.6247	 -8.4424	  0.0000
Zn	  1.6248	 -8.4424	  0.0000
Zn	 -6.4990	 -5.6283	  0.0000
Zn	 -3.2495	 -5.6283	  0.0000
Zn	  0.0000	 -5.6283	  0.0000
Zn	  3.2495	 -5.6283	  0.0000
Zn	  6.4990	 -5.6283	  0.0000
Zn	 -8.1237	 -2.8141	  0.0000
Zn	 -4.8742	 -2.8141	  0.0000
Zn	 -1.6247	 -2.8141	  0.0000
Zn	  1.6248	 -2.8141	  0.0000
Zn	  4.8743	 -2.8141	  0.0000
Zn	  8.1237	 -2.8141	  0.0000
Zn	 -6.4990	  0.0000	  0.0000
Zn	 -3.2495	  0.0000	  0.0000
Zn	  0.0000	  0.0000	  0.0000
Zn	  3.2495	  0.0000	  0.0000
Zn	  6.4990	  0.0000	  0.0000
Zn	 -8.1237	  2.8141	  0.0000
Zn	 -4.8743	  2.8141	  0.0000
Zn	 -1.6248	  2.8141	  0.0000
Zn	  1.6247	  2.8141	  0.0000
Zn	  4.8742	  2.8141	  0.0000
Zn	  8.1237	  2.8141	  0.0000
Zn	 -6.4990	  5.6283	  0.0000
Zn	 -3.2495	  5.6283	  0.0000
Zn	 -0.0000	  5.6283	  0.0000
Zn	  3.2495	  5.6283	  0.0000
Zn	  6.4990	  5.6283	  0.0000
Zn	 -1.6248	  8.4424	  0.0000
Zn	  1.6247	  8.4424	  0.0000
 O	 -4.8742	 -6.5661	 -0.8736
 O	 -1.6247	 -6.5661	 -0.8736
 O	  1.6248	 -6.5661	 -0.8736
 O	  4.8743	 -6.5661	 -0.8736
 O	 -6.4990	 -3.7519	 -0.8736
 O	 -3.2495	 -3.7519	 -0.8736
 O	  0.0000	 -3.7519	 -0.8736
 O	  3.2495	 -3.7519	 -0.8736
 O	  6.4990	 -3.7519	 -0.8736
 O	 -8.1237	 -0.9378	 -0.8736
 O	 -4.8742	 -0.9378	 -0.8736
 O	 -1.6248	 -0.9378	 -0.8736
 O	  1.6248	 -0.9378	 -0.8736
 O	  4.8743	 -0.9378	 -0.8736
 O	  8.1237	 -0.9378	 -0.8736
 O	 -6.4990	  1.8764	 -0.8736
 O	 -3.2495	  1.8764	 -0.8736
 O	 -0.0000	  1.8764	 -0.8736
 O	  3.2495	  1.8764	 -0.8736
 O	  6.4990	  1.8764	 -0.8736
 O	 -4.8743	  4.6905	 -0.8736
 O	 -1.6248	  4.6905	 -0.8736
 O	  1.6247	  4.6905	 -0.8736
 O	  4.8742	  4.6905	 -0.8736
 O	 -3.2495	  7.5047	 -0.8736
 O	 -0.0000	  7.5047	 -0.8736
 O	  3.2495	  7.5047	 -0.8736
Zn	 -3.2495	 -3.7519	 -2.7113
Zn	  3.2495	 -3.7519	 -2.7113
Zn	 -6.4990	  1.8764	 -2.7113
Zn	 -0.0000	  1.8764	 -2.7113
Zn	  6.4990	  1.8764	 -2.7113
Zn	 -3.2495	  7.5047	 -2.7113
Zn	  3.2495	  7.5047	 -2.7113
Zn	 -4.8745	 -6.5665	 -2.7113
Zn	  1.6245	 -6.5665	 -2.7113
Zn	 -8.1240	 -0.9382	 -2.7113
Zn	 -1.6250	 -0.9382	 -2.7113
Zn	  4.8740	 -0.9382	 -2.7113
Zn	 -4.8745	  4.6901	 -2.7113
Zn	  1.6245	  4.6901	 -2.7113
Zn	 -1.6245	 -6.5665	 -2.7113
Zn	  4.8745	 -6.5665	 -2.7113
Zn	 -4.8740	 -0.9382	 -2.7113
Zn	  1.6250	 -0.9382	 -2.7113
Zn	  8.1240	 -0.9382	 -2.7113
Zn	 -1.6245	  4.6901	 -2.7113
Zn	  4.8745	  4.6901	 -2.7113
 O	 -1.6247	 -8.4424	 -3.3353
 O	  1.6248	 -8.4424	 -3.3353
 O	 -6.4990	 -5.6283	 -3.3353
 O	 -3.2495	 -5.6283	 -3.3353
 O	  0.0000	 -5.6283	 -3.3353
 O	  3.2495	 -5.6283	 -3.3353
 O	  6.4990	 -5.6283	 -3.3353
 O	 -8.1237	 -2.8141	 -3.3353
 O	 -4.8742	 -2.8141	 -3.3353
 O	 -1.6247	 -2.8141	 -3.3353
 O	  1.6248	 -2.8141	 -3.3353
 O	  4.8743	 -2.8141	 -3.3353
 O	  8.1237	 -2.8141	 -3.3353
 O	 -6.4990	  0.0000	 -3.3353
 O	 -3.2495	  0.0000	 -3.3353
 O	  0.0000	  0.0000	 -3.3353
 O	  3.2495	  0.0000	 -3.3353
 O	  6.4990	  0.0000	 -3.3353
 O	 -8.1237	  2.8141	 -3.3353
 O	 -4.8743	  2.8141	 -3.3353
 O	 -1.6248	  2.8141	 -3.3353
 O	  1.6247	  2.8141	 -3.3353
 O	  4.8742	  2.8141	 -3.3353
 O	  8.1237	  2.8141	 -3.3353
 O	 -6.4990	  5.6283	 -3.3353
 O	 -3.2495	  5.6283	 -3.3353
 O	 -0.0000	  5.6283	 -3.3353
 O	  3.2495	  5.6283	 -3.3353
 O	  6.4990	  5.6283	 -3.3353
 O	 -1.6248	  8.4424	 -3.3353
 O	  1.6247	  8.4424	 -3.3353
Zn	 -3.2495	 -5.6283	 -5.3113
Zn	  0.0000	 -5.6283	 -5.3113
Zn	  3.2495	 -5.6283	 -5.3113
Zn	 -4.8742	 -2.8141	 -5.3113
Zn	 -1.6247	 -2.8141	 -5.3113
Zn	  1.6248	 -2.8141	 -5.3113
Zn	  4.8743	 -2.8141	 -5.3113
Zn	 -6.4990	  0.0000	 -5.3113
Zn	 -3.2495	  0.0000	 -5.3113
Zn	  0.0000	  0.0000	 -5.3113
Zn	  3.2495	  0.0000	 -5.3113
Zn	  6.4990	  0.0000	 -5.3113
Zn	 -4.8743	  2.8141	 -5.3113
Zn	 -1.6248	  2.8141	 -5.3113
Zn	  1.6247	  2.8141	 -5.3113
Zn	  4.8742	  2.8141	 -5.3113
Zn	 -3.2495	  5.6283	 -5.3113
Zn	 -0.0000	  5.6283	 -5.3113
Zn	  3.2495	  5.6283	 -5.3113
 O	 -4.8742	 -6.5661	 -5.9353
 O	 -1.6247	 -6.5661	 -5.9353
 O	  1.6248	 -6.5661	 -5.9353
 O	  4.8743	 -6.5661	 -5.9353
 O	 -6.4990	 -3.7519	 -5.9353
 O	 -3.2495	 -3.7519	 -5.9353
 O	  0.0000	 -3.7519	 -5.9353
 O	  3.2495	 -3.7519	 -5.9353
 O	  6.4990	 -3.7519	 -5.9353
 O	 -8.1237	 -0.9378	 -5.9353
 O	 -4.8742	 -0.9378	 -5.9353
 O	 -1.6248	 -0.9378	 -5.9353
 O	  1.6248	 -0.9378	 -5.9353
 O	  4.8743	 -0.9378	 -5.9353
 O	  8.1237	 -0.9378	 -5.9353
 O	 -6.4990	  1.8764	 -5.9353
 O	 -3.2495	  1.8764	 -5.9353
 O	 -0.0000	  1.8764	 -5.9353
 O	  3.2495	  1.8764	 -5.9353
 O	  6.4990	  1.8764	 -5.9353
 O	 -4.8743	  4.6905	 -5.9353
 O	 -1.6248	  4.6905	 -5.9353
 O	  1.6247	  4.6905	 -5.9353
 O	  4.8742	  4.6905	 -5.9353
 O	 -3.2495	  7.5047	 -5.9353
 O	 -0.0000	  7.5047	 -5.9353
 O	  3.2495	  7.5047	 -5.9353
Zn	 -1.6247	 -6.5661	 -7.9113
Zn	  1.6248	 -6.5661	 -7.9113
Zn	 -6.4990	 -3.7519	 -7.9113
Zn	 -3.2495	 -3.7519	 -7.9113
Zn	  0.0000	 -3.7519	 -7.9113
Zn	  3.2495	 -3.7519	 -7.9113
Zn	  6.4990	 -3.7519	 -7.9113
Zn	 -4.8742	 -0.9378	 -7.9113
Zn	 -1.6248	 -0.9378	 -7.9113
Zn	  1.6248	 -0.9378	 -7.9113
Zn	  4.8743	 -0.9378	 -7.9113
Zn	 -6.4990	  1.8764	 -7.9113
Zn	 -3.2495	  1.8764	 -7.9113
Zn	 -0.0000	  1.8764	 -7.9113
Zn	  3.2495	  1.8764	 -7.9113
Zn	  6.4990	  1.8764	 -7.9113
Zn	 -4.8743	  4.6905	 -7.9113
Zn	 -1.6248	  4.6905	 -7.9113
Zn	  1.6247	  4.6905	 -7.9113
Zn	  4.8742	  4.6905	 -7.9113
Zn	 -0.0000	  7.5047	 -7.9113
 O	 -3.2495	 -5.6283	 -8.5353
 O	  0.0000	 -5.6283	 -8.5353
 O	  3.2495	 -5.6283	 -8.5353
 O	 -4.8742	 -2.8141	 -8.5353
 O	 -1.6247	 -2.8141	 -8.5353
 O	  1.6248	 -2.8141	 -8.5353
 O	  4.8743	 -2.8141	 -8.5353
 O	 -6.4990	  0.0000	 -8.5353
 O	 -3.2495	  0.0000	 -8.5353
 O	  0.0000	  0.0000	 -8.5353
 O	  3.2495	  0.0000	 -8.5353
 O	  6.4990	  0.0000	 -8.5353
 O	 -4.8743	  2.8141	 -8.5353
 O	 -1.6248	  2.8141	 -8.5353
 O	  1.6247	  2.8141	 -8.5353
 O	  4.8742	  2.8141	 -8.5353
 O	 -3.2495	  5.6283	 -8.5353
 O	 -0.0000	  5.6283	 -8.5353
 O	  3.2495	  5.6283	 -8.5353
Zn	 -3.2495	 -5.6283	-10.5113
Zn	  0.0000	 -5.6283	-10.5113
Zn	  3.2495	 -5.6283	-10.5113
Zn	 -4.8742	 -2.8141	-10.5113
Zn	 -1.6247	 -2.8141	-10.5113
Zn	  1.6248	 -2.8141	-10.5113
Zn	  4.8743	 -2.8141	-10.5113
Zn	 -6.4990	  0.0000	-10.5113
Zn	 -3.2495	  0.0000	-10.5113
Zn	  0.0000	  0.0000	-10.5113
Zn	  3.2495	  0.0000	-10.5113
Zn	  6.4990	  0.0000	-10.5113
Zn	 -4.8743	  2.8141	-10.5113
Zn	 -1.6248	  2.8141	-10.5113
Zn	  1.6247	  2.8141	-10.5113
Zn	  4.8742	  2.8141	-10.5113
Zn	 -3.2495	  5.6283	-10.5113
Zn	 -0.0000	  5.6283	-10.5113
Zn	  3.2495	  5.6283	-10.5113
 O	 -1.6247	 -6.5661	-11.1353
 O	  1.6248	 -6.5661	-11.1353
 O	 -3.2495	 -3.7519	-11.1353
 O	  0.0000	 -3.7519	-11.1353
 O	  3.2495	 -3.7519	-11.1353
 O	 -4.8742	 -0.9378	-11.1353
 O	 -1.6248	 -0.9378	-11.1353
 O	  1.6248	 -0.9378	-11.1353
 O	  4.8743	 -0.9378	-11.1353
 O	 -6.4990	  1.8764	-11.1353
 O	 -3.2495	  1.8764	-11.1353
 O	 -0.0000	  1.8764	-11.1353
 O	  3.2495	  1.8764	-11.1353
 O	  6.4990	  1.8764	-11.1353
 O	 -4.8743	  4.6905	-11.1353
 O	 -1.6248	  4.6905	-11.1353
 O	  1.6247	  4.6905	-11.1353
 O	  4.8742	  4.6905	-11.1353
Zn	 -3.2495	 -3.7519	-13.1113
Zn	  0.0000	 -3.7519	-13.1113
Zn	  3.2495	 -3.7519	-13.1113
Zn	 -4.8742	 -0.9378	-13.1113
Zn	 -1.6248	 -0.9378	-13.1113
Zn	  1.6248	 -0.9378	-13.1113
Zn	  4.8743	 -0.9378	-13.1113
Zn	 -3.2495	  1.8764	-13.1113
Zn	 -0.0000	  1.8764	-13.1113
Zn	  3.2495	  1.8764	-13.1113
Zn	 -1.6248	  4.6905	-13.1113
Zn	  1.6247	  4.6905	-13.1113
 O	 -1.6247	 -2.8141	-13.7353
 O	  1.6248	 -2.8141	-13.7353
 O	 -3.2495	  0.0000	-13.7353
 O	  0.0000	  0.0000	-13.7353
 O	  3.2495	  0.0000	-13.7353
 O	 -1.6248	  2.8141	-13.7353
 O	  1.6247	  2.8141	-13.7353
Zn	 -1.6247	 -2.8141	-15.7113
Zn	  1.6248	 -2.8141	-15.7113
Zn	 -3.2495	  0.0000	-15.7113
Zn	  0.0000	  0.0000	-15.7113
Zn	  3.2495	  0.0000	-15.7113
Zn	 -1.6248	  2.8141	-15.7113
Zn	  1.6247	  2.8141	-15.7113
 O	 -1.6248	 -0.9378	-16.3353
 O	  1.6248	 -0.9378	-16.3353
 O	 -0.0000	  1.8764	-16.3353
